rawData/koth3cdf.txt
Kothari and Nagrath Modern Power Systems Example 6.6 Page 218           100.0 3 Bus System
BUS DATA FOLLOWS                             3 ITEMS
   1 Bus 1     HV  1  1  3 1.040    0.0    200.0    100.0    103.1   -79.1     0.0  1.040     0.0     0.0   0.0    0.0        0
   2 Bus 2     HV  1  1  0 1.081  -1.38      0.0      0.0     50.0   100.0     0.0  1.081    50.0   -40.0   0.0    0.0        0
   3 Bus 3     HV  1  1  2 1.040  -3.75    150.0     60.0      0.0    45.0     0.0  1.040    40.0     0.0   0.0    0.0        0
-999 
BRANCH DATA FOLLOWS                          3 ITEMS
   1    2  1  1 1 0  0.02000   0.08000     0.0200     0     0     0    0 0  0.0       0.0 0.0    0.0     0.0    0.0   0.0
   1    3  1  1 1 0  0.02000   0.08000     0.0200     0     0     0    0 0  0.0       0.0 0.0    0.0     0.0    0.0   0.0
   2    3  1  1 1 0  0.02000   0.08000     0.0200     0     0     0    0 0  0.0       0.0 0.0    0.0     0.0    0.0   0.0
-999
END OF DATA
